<?xml version="1.0" encoding="UTF-8"?>
<!DOCTYPE network SYSTEM "http://www.matsim.org/files/dtd/network_v2.dtd">
<network>
   <nodes>
      <node id="n_1" x="679271.3878010327" y="2797630.6266983496"/>
      <node id="n_2" x="679279.4737977326" y="2797628.5183273954"/>
      <node id="n_3" x="679349.1531080089" y="2797615.04142276"/>
      <node id="n_4" x="679348.2637355728" y="2797606.1666815593"/>
      <node id="n_5" x="679771.3787200869" y="2797525.3796264464"/>
      <node id="n_6" x="679858.2239228048" y="2797508.810212284"/>
      <node id="n_7" x="680065.2228352557" y="2797470.5777864554"/>
      <node id="n_8" x="680264.181192826" y="2797431.13323483"/>
      <node id="n_9" x="680371.2732710458" y="2797407.0822232254"/>
      <node id="n_10" x="680373.0951165309" y="2797421.508892303"/>
      <node id="n_11" x="680530.7940527966" y="2797379.301352982"/>
      <node id="n_12" x="680548.4923145091" y="2797411.6662839963"/>
      <node id="n_13" x="680554.3867782699" y="2797422.8238258776"/>
      <node id="n_14" x="680589.3829953953" y="2797517.4610258844"/>
      <node id="n_15" x="680590.3160120536" y="2797523.012870634"/>
      <node id="n_16" x="680591.2786561704" y="2797526.3493651156"/>
      <node id="n_17" x="680592.2116711248" y="2797531.9012101404"/>
      <node id="n_18" x="680593.0409840101" y="2797545.206781942"/>
      <node id="n_19" x="680594.936636932" y="2797554.095122364"/>
      <node id="n_20" x="680596.8767314903" y="2797559.6604374773"/>
      <node id="n_21" x="680599.8239078689" y="2797565.239222697"/>
      <node id="n_22" x="680603.8077958418" y="2797568.6161281327"/>
      <node id="n_23" x="680609.8206640995" y="2797570.9123003986"/>
      <node id="n_24" x="680613.8489970001" y="2797570.9661830002"/>
      <node id="n_25" x="680618.8844132065" y="2797571.033537945"/>
      <node id="n_26" x="680686.6406212053" y="2797550.8904388603"/>
      <node id="n_27" x="680689.661876393" y="2797550.9308676217"/>
      <node id="n_28" x="680691.6612239415" y="2797552.0654961285"/>
      <node id="n_29" x="680692.6683089356" y="2797552.0789726865"/>
      <node id="n_30" x="680693.6457483995" y="2797554.307800587"/>
      <node id="n_31" x="680694.6231875157" y="2797556.5366285825"/>
      <node id="n_32" x="680697.9251829941" y="2797610.866645014"/>
      <node id="n_33" x="680702.145264521" y="2797671.8562000743"/>
      <node id="n_34" x="680704.5438619407" y="2797718.4190199096"/>
      <node id="n_35" x="680709.904334806" y="2797769.4529838497"/>
      <node id="n_36" x="680711.6367856035" y="2797790.525785548"/>
      <node id="n_37" x="680712.3473365519" y="2797812.692785096"/>
      <node id="n_38" x="680711.6356883554" y="2797865.8612363287"/>
      <node id="n_39" x="680712.3165718864" y="2797890.243590398"/>
      <node id="n_40" x="680713.2643260079" y="2797894.6877745776"/>
      <node id="n_41" x="680714.197252833" y="2797900.239635039"/>
      <node id="n_42" x="680720.8315048465" y="2797931.3489288394"/>
      <node id="n_43" x="680715.7813938868" y="2797932.389203967"/>
      <node id="n_44" x="680713.7524537252" y="2797933.4699202506"/>
      <node id="n_45" x="680711.7086873434" y="2797935.6583130094"/>
      <node id="n_46" x="680703.6818875463" y="2797933.3351251753"/>
      <node id="n_47" x="680698.646604591" y="2797933.2677304577"/>
      <node id="n_48" x="680692.6042651576" y="2797933.1868592775"/>
      <node id="n_49" x="680677.4835933854" y="2797934.0923692277"/>
      <node id="n_50" x="680622.0658568733" y="2797935.566589744"/>
      <node id="n_51" x="680560.591000818" y="2797938.0679003187"/>
      <node id="n_52" x="680495.1027763572" y="2797939.40795894"/>
      <node id="n_53" x="680386.2520347801" y="2797944.6003788314"/>
      <node id="n_54" x="680392.4583547023" y="2798083.167409102"/>
      <node id="n_55" x="680397.1388339408" y="2798185.1542721433"/>
      <node id="n_56" x="680402.959821366" y="2798352.5209246096"/>
      <node id="n_57" x="680407.0326588433" y="2798424.587132577"/>
      <node id="n_58" x="680410.0687957724" y="2798498.8552423697"/>
      <node id="n_59" x="680412.6900853477" y="2798528.8028681213"/>
      <node id="n_60" x="680415.5780544741" y="2798614.147750956"/>
      <node id="n_61" x="680420.5983946124" y="2798690.6581597957"/>
      <node id="n_62" x="680421.264823407" y="2798716.1481705448"/>
      <node id="n_63" x="680421.2204010162" y="2798719.471198767"/>
      <node id="n_64" x="680424.5820310344" y="2798769.3704712065"/>
      <node id="n_65" x="680429.0838703804" y="2798884.649574536"/>
      <node id="n_66" x="680235.8602147892" y="2798797.86929385"/>
      <node id="n_67" x="680225.8494826816" y="2798793.304114885"/>
      <node id="n_68" x="679960.5184578507" y="2798675.6527561643"/>
      <node id="n_69" x="679818.3659720405" y="2798610.6094802436"/>
      <node id="n_70" x="679684.209266643" y="2798550.1057239105"/>
      <node id="n_71" x="679639.2035855975" y="2798526.241407949"/>
      <node id="n_72" x="679608.2811421074" y="2798503.6725167176"/>
      <node id="n_73" x="679580.4533142999" y="2798475.6055332217"/>
      <node id="n_74" x="679530.0091741118" y="2798406.246662027"/>
      <node id="n_75" x="679492.4201082704" y="2798354.7848400823"/>
      <node id="n_76" x="679476.5581635104" y="2798335.7401755443"/>
      <node id="n_77" x="679466.5910403705" y="2798327.8525820137"/>
      <node id="n_78" x="679456.5797280229" y="2798323.2880122866"/>
      <node id="n_79" x="679284.7468237766" y="2798293.3080136795"/>
      <node id="n_80" x="679284.805670248" y="2798288.877328878"/>
      <node id="n_81" x="679282.850468542" y="2798284.419894577"/>
      <node id="n_82" x="679278.9253498879" y="2798276.612698286"/>
      <node id="n_83" x="679271.0162567587" y="2798265.4289946095"/>
      <node id="n_84" x="679238.3874274563" y="2798219.573193486"/>
      <node id="n_85" x="679185.8382714611" y="2798156.835073237"/>
      <node id="n_86" x="679145.1819809492" y="2798108.6572643905"/>
      <node id="n_87" x="679134.295654751" y="2798094.1105539924"/>
      <node id="n_88" x="679129.3339551823" y="2798088.5053893966"/>
      <node id="n_89" x="679122.4022657819" y="2798079.550492184"/>
      <node id="n_90" x="679118.4475947423" y="2798073.9586941106"/>
      <node id="n_91" x="679113.4858809009" y="2798068.353536305"/>
      <node id="n_92" x="679109.5458985461" y="2798061.6540710875"/>
      <node id="n_93" x="679105.605912078" y="2798054.9546073074"/>
      <node id="n_94" x="679101.6953117561" y="2798046.0398045746"/>
      <node id="n_95" x="679096.8070534961" y="2798034.896303319"/>
      <node id="n_96" x="679092.911134881" y="2798024.8738339082"/>
      <node id="n_97" x="679090.0075592392" y="2798015.972395254"/>
      <node id="n_98" x="679088.0816356211" y="2798009.299656614"/>
      <node id="n_99" x="679086.1410162462" y="2798003.7345884964"/>
      <node id="n_100" x="679076.4378927257" y="2797975.909254076"/>
      <node id="n_101" x="679071.593660383" y="2797961.4427557373"/>
      <node id="n_102" x="679066.7934914089" y="2797943.653250212"/>
      <node id="n_103" x="679061.9492344433" y="2797929.1867572013"/>
      <node id="n_104" x="679059.0309220059" y="2797921.392998543"/>
      <node id="n_105" x="679056.1566775928" y="2797910.2762312423"/>
      <node id="n_106" x="679053.2383568794" y="2797902.4824744565"/>
      <node id="n_107" x="679050.2906524503" y="2797896.9040581887"/>
      <node id="n_108" x="679045.343530359" y="2797890.191262394"/>
      <node id="n_109" x="679041.4034560777" y="2797883.491823604"/>
      <node id="n_110" x="679034.3981518245" y="2797880.0753320833"/>
      <node id="n_111" x="679028.3998975493" y="2797876.6721982653"/>
      <node id="n_112" x="679021.3652118151" y="2797875.471053263"/>
      <node id="n_113" x="679013.3087847977" y="2797875.364228855"/>
      <node id="n_114" x="679003.2235653226" y="2797876.3383747158"/>
      <node id="n_115" x="678935.5895200818" y="2797887.628322248"/>
      <node id="n_116" x="678934.6852310547" y="2797879.8612898113"/>
      <node id="n_117" x="678932.7885675703" y="2797870.973241477"/>
      <node id="n_118" x="678929.855487271" y="2797864.287185765"/>
      <node id="n_119" x="678927.9147783988" y="2797858.722146474"/>
      <node id="n_120" x="678923.9452791123" y="2797854.2380847484"/>
      <node id="n_121" x="678919.9904561789" y="2797848.646355117"/>
      <node id="n_122" x="678914.0215191822" y="2797843.0279363296"/>
      <node id="n_123" x="678907.0455214866" y="2797837.3961758222"/>
      <node id="n_124" x="678902.0542753441" y="2797834.0064459955"/>
      <node id="n_125" x="678898.0554058201" y="2797831.7377312384"/>
      <node id="n_126" x="678894.0565350081" y="2797829.4690177506"/>
      <node id="n_127" x="678869.0415512386" y="2797816.951090751"/>
      <node id="n_128" x="678857.0302347913" y="2797811.2526506027"/>
      <node id="n_129" x="678847.04769722" y="2797804.4732327727"/>
      <node id="n_130" x="678841.0493666285" y="2797801.070187263"/>
      <node id="n_131" x="678836.0580915032" y="2797797.6804837533"/>
      <node id="n_132" x="678820.1212037746" y="2797784.1750409068"/>
      <node id="n_133" x="678819.1874962195" y="2797778.623359092"/>
      <node id="n_134" x="678817.2613977205" y="2797771.9506709552"/>
      <node id="n_135" x="678812.387463377" y="2797759.699627457"/>
      <node id="n_136" x="678807.5575269167" y="2797744.12558034"/>
      <node id="n_137" x="678799.8237351028" y="2797719.650177985"/>
      <node id="n_138" x="678847.2877987047" y="2797710.308039857"/>
      <node id="n_139" x="678864.4519240581" y="2797707.2118178243"/>
      <node id="n_140" x="678957.3662027307" y="2797688.5014528106"/>
      <node id="n_141" x="679005.83759112" y="2797679.1732068555"/>
      <node id="n_142" x="679227.9513478935" y="2797640.0208498845"/>
      <node id="n_143" x="680384.381208579" y="2797481.484737125"/>
      <node id="n_144" x="680385.2847180266" y="2797489.2519110115"/>
      <node id="n_145" x="680385.1811383272" y="2797497.005631647"/>
      <node id="n_146" x="680385.0627611987" y="2797505.86702674"/>
      <node id="n_147" x="680380.0865128888" y="2797501.369062998"/>
      <node id="n_148" x="680379.0942221576" y="2797500.247935624"/>
      <node id="n_149" x="680378.0871347052" y="2797500.234482691"/>
      <node id="n_150" x="680377.0800472562" y="2797500.2210298344"/>
      <node id="n_151" x="680375.06587237" y="2797500.1941243457"/>
      <node id="n_152" x="680374.0587849315" y="2797500.1806717142"/>
      <node id="n_153" x="680373.0369013507" y="2797501.2748934976"/>
      <node id="n_154" x="680369.9712515888" y="2797504.5575592592"/>
      <node id="n_155" x="680368.9345728192" y="2797506.759455649"/>
      <node id="n_156" x="680367.897894362" y="2797508.961352104"/>
      <node id="n_157" x="680368.8901852587" y="2797510.08247865"/>
      <node id="n_158" x="680368.8753893942" y="2797511.190152986"/>
      <node id="n_159" x="680369.8676800354" y="2797512.311279622"/>
      <node id="n_160" x="680370.8599705092" y="2797513.4324063417"/>
      <node id="n_161" x="680382.8414285793" y="2797521.347561523"/>
      <node id="n_162" x="680385.8478889596" y="2797522.4955963087"/>
      <node id="n_163" x="680388.8691464486" y="2797522.535957368"/>
      <node id="n_164" x="680389.891029943" y="2797521.4417367736"/>
      <node id="n_165" x="680391.9347974197" y="2797519.2532957913"/>
      <node id="n_166" x="680392.9714792855" y="2797517.0514009665"/>
      <node id="n_167" x="680393.9933635084" y="2797515.9571806453"/>
      <node id="n_168" x="680394.0081614624" y="2797514.8495062073"/>
      <node id="n_169" x="680393.0306707595" y="2797512.6207032315"/>
      <node id="n_170" x="680392.0383819395" y="2797511.4995747777"/>
      <node id="n_171" x="680374.0282309982" y="2797427.0607157405"/>
      <node id="n_172" x="680792.8038694984" y="2797295.284601266"/>
      <node id="n_173" x="680925.4024047845" y="2797247.206080588"/>
      <node id="n_174" x="681210.8489312675" y="2797143.569295153"/>
      <node id="n_175" x="681229.2558138495" y="2797198.1022464326"/>
      <node id="n_176" x="681279.7899329467" y="2797185.4859629553"/>
      <node id="n_177" x="681286.8694763198" y="2797183.3652411313"/>
      <node id="n_178" x="681292.9121674431" y="2797183.446358063"/>
      <node id="n_179" x="681304.0201760035" y="2797181.379724463"/>
      <node id="n_180" x="681212.7739895395" y="2797150.2423847667"/>
      <node id="n_181" x="681686.7278764579" y="2796961.623506163"/>
      <node id="n_182" x="681979.3417335695" y="2796850.3433493827"/>
      <node id="n_183" x="682317.5218909867" y="2796721.9580175756"/>
      <node id="n_184" x="682531.1690964665" y="2796640.6442347625"/>
      <node id="n_185" x="682715.47635693" y="2796568.9077219907"/>
      <node id="n_186" x="683026.3577996881" y="2796449.033008002"/>
      <node id="n_187" x="683206.6119334836" y="2796379.463677547"/>
      <node id="n_188" x="683396.9550055517" y="2796308.9256822295"/>
      <node id="n_189" x="683410.1236652067" y="2796303.565010723"/>
      <node id="n_190" x="683511.3994317084" y="2796263.9484088477"/>
      <node id="n_191" x="683515.4432534423" y="2796262.8954485836"/>
      <node id="n_192" x="683588.2923752473" y="2796239.511623801"/>
      <node id="n_193" x="683671.1685794569" y="2796219.58815646"/>
      <node id="n_194" x="683674.1901731159" y="2796219.629234946"/>
      <node id="n_195" x="683677.2117668072" y="2796219.6703141085"/>
      <node id="n_196" x="683724.5199457594" y="2796222.5293472633"/>
      <node id="n_197" x="683729.5559353324" y="2796222.5978317424"/>
      <node id="n_198" x="683733.5997910205" y="2796221.544934999"/>
      <node id="n_199" x="683737.6436474205" y="2796220.4920394295"/>
      <node id="n_200" x="683740.6953708465" y="2796218.317761394"/>
      <node id="n_201" x="683749.86561237" y="2796210.687245368"/>
      <node id="n_202" x="683754.9468038386" y="2796207.4326817906"/>
      <node id="n_203" x="683761.035197265" y="2796204.1918192976"/>
      <node id="n_204" x="683769.1078596631" y="2796203.193730685"/>
      <node id="n_205" x="683779.1949229408" y="2796202.2230480555"/>
      <node id="n_206" x="683887.1613012167" y="2796189.2895312603"/>
      <node id="n_207" x="684043.5189451366" y="2796173.692290917"/>
      <node id="n_208" x="684101.9971010202" y="2796170.05744495"/>
      <node id="n_209" x="684207.9045181433" y="2796160.422069497"/>
      <node id="n_210" x="684366.2926699936" y="2796143.7482967125"/>
      <node id="n_211" x="684381.4158877779" y="2796142.8467801306"/>
      <node id="n_212" x="684756.6575349316" y="2796106.980729907"/>
      <node id="n_213" x="684769.7664297352" y="2796106.0520975636"/>
      <node id="n_214" x="685022.9558224735" y="2796081.8195052035"/>
      <node id="n_215" x="685040.093637235" y="2796080.9463045313"/>
      <node id="n_216" x="685212.6766078181" y="2796057.8293058276"/>
      <node id="n_217" x="685279.2896456826" y="2796048.7715028985"/>
      <node id="n_218" x="685384.2379136053" y="2796035.808346878"/>
      <node id="n_219" x="685544.7052878165" y="2796014.745072926"/>
      <node id="n_220" x="685613.318110134" y="2796006.8242454184"/>
      <node id="n_221" x="685670.7754724742" y="2796004.289972643"/>
      <node id="n_222" x="685729.1639671696" y="2796007.308253969"/>
      <node id="n_223" x="685760.342200612" y="2796011.0605714233"/>
      <node id="n_224" x="685786.4690766679" y="2796015.8514068257"/>
      <node id="n_225" x="685849.7260486623" y="2796031.1240937985"/>
      <node id="n_226" x="685903.9026680702" y="2796047.380051062"/>
      <node id="n_227" x="685918.9652570401" y="2796050.9110178538"/>
      <node id="n_228" x="686081.5248493414" y="2796097.4650404216"/>
      <node id="n_229" x="686117.67789143" y="2796105.7183414497"/>
      <node id="n_230" x="686135.7467683926" y="2796110.3988767522"/>
      <node id="n_231" x="686208.0069017711" y="2796130.228962745"/>
      <node id="n_232" x="686251.149233881" y="2796143.010585679"/>
      <node id="n_233" x="686279.2138181124" y="2796153.368648388"/>
      <node id="n_234" x="686358.6921274189" y="2796161.112123076"/>
      <node id="n_235" x="686863.5136886877" y="2796298.818103283"/>
      <node id="n_236" x="686932.7504024566" y="2796318.610403193"/>
      <node id="n_237" x="686997.9121233895" y="2796341.6704007597"/>
      <node id="n_238" x="687068.0789794619" y="2796367.0158574423"/>
      <node id="n_239" x="687137.2537391299" y="2796391.2400442013"/>
      <node id="n_240" x="687212.4868220454" y="2796414.440646418"/>
      <node id="n_241" x="687294.8007780453" y="2796435.52403001"/>
      <node id="n_242" x="687529.7933713982" y="2796488.640192546"/>
      <node id="n_243" x="687732.6466085073" y="2796534.6664029853"/>
      <node id="n_244" x="687892.3127458902" y="2796571.231662722"/>
      <node id="n_245" x="688005.8016231592" y="2796596.0769377844"/>
      <node id="n_246" x="688053.0316061353" y="2796604.489775876"/>
      <node id="n_247" x="688102.2759205905" y="2796612.930832605"/>
      <node id="n_248" x="688149.5212381422" y="2796620.236311837"/>
      <node id="n_249" x="688206.8538343566" y="2796626.574580503"/>
      <node id="n_250" x="688245.0961274751" y="2796629.323291313"/>
      <node id="n_251" x="688278.3024710582" y="2796632.001919312"/>
      <node id="n_252" x="688319.350117987" y="2796650.3008178324"/>
      <node id="n_253" x="688443.2341796397" y="2796652.02847368"/>
      <node id="n_254" x="688490.5720064908" y="2796652.6889352235"/>
      <node id="n_255" x="688502.6582614561" y="2796652.857590319"/>
      <node id="n_256" x="688586.2548727844" y="2796654.024417814"/>
      <node id="n_257" x="688620.4992750995" y="2796654.502544887"/>
      <node id="n_258" x="688637.63694666" y="2796653.6339354385"/>
      <node id="n_259" x="688655.7972810338" y="2796651.671708359"/>
      <node id="n_260" x="688700.2992759212" y="2796638.998235502"/>
      <node id="n_261" x="688789.2725845504" y="2796615.8671264965"/>
      <node id="n_262" x="688863.0918659756" y="2796595.8484707843"/>
      <node id="n_263" x="689091.6636088316" y="2796531.46270121"/>
      <node id="n_264" x="689101.5960514954" y="2796541.573054568"/>
      <node id="n_265" x="689110.5833085607" y="2796547.238486987"/>
      <node id="n_266" x="689127.6281447631" y="2796553.0167329707"/>
      <node id="n_267" x="689157.797563428" y="2796556.7629249697"/>
      <node id="n_268" x="689208.1109320713" y="2796560.79131483"/>
      <node id="n_269" x="689255.3406152641" y="2796569.2083929996"/>
      <node id="n_270" x="689324.6199206709" y="2796585.690131524"/>
      <node id="n_271" x="689354.7426632968" y="2796592.759896506"/>
      <node id="n_272" x="689676.9019102536" y="2796679.2662677807"/>
      <node id="n_273" x="689836.4538404463" y="2796723.6089119855"/>
      <node id="n_274" x="690003.0395798415" y="2796769.1603899696"/>
      <node id="n_275" x="690172.6302972184" y="2796815.86424737"/>
      <node id="n_276" x="690287.9726755967" y="2796851.83457223"/>
      <node id="n_277" x="690282.7891573637" y="2796933.748540392"/>
      <node id="n_278" x="690282.7111297185" y="2796939.2871030974"/>
      <node id="n_279" x="690284.6162395386" y="2796947.069469471"/>
      <node id="n_280" x="690291.4791839807" y="2796960.461347881"/>
      <node id="n_281" x="690293.4154979411" y="2796966.028290953"/>
      <node id="n_282" x="690294.2978173738" y="2796974.904182123"/>
      <node id="n_283" x="690288.6689117709" y="2797016.9263124513"/>
      <node id="n_284" x="690287.5993167519" y="2797021.342973175"/>
      <node id="n_285" x="690284.5309915002" y="2797024.6235417416"/>
      <node id="n_286" x="690277.3403602218" y="2797034.4936294057"/>
      <node id="n_287" x="690275.2792079055" y="2797037.7883890425"/>
      <node id="n_288" x="690272.1796785513" y="2797043.28438531"/>
      <node id="n_289" x="690272.0860463881" y="2797049.9306611344"/>
      <node id="n_290" x="690273.4605475671" y="2797095.3752588257"/>
      <node id="n_291" x="690274.3896814521" y="2797100.928011632"/>
      <node id="n_292" x="690276.3415829063" y="2797105.3872412997"/>
      <node id="n_293" x="690286.0230339712" y="2797133.2219594438"/>
      <node id="n_294" x="690287.9281043274" y="2797141.0043299575"/>
      <node id="n_295" x="690289.8643870149" y="2797146.57127528"/>
      <node id="n_296" x="690290.5906099719" y="2797166.5242973184"/>
      <node id="n_297" x="690561.8444847085" y="2797147.082357159"/>
      <node id="n_298" x="690707.9610456299" y="2797143.605165426"/>
      <node id="n_299" x="690718.0170205815" y="2797144.85510226"/>
      <node id="n_300" x="690724.0599907718" y="2797144.940439258"/>
      <node id="n_301" x="690947.070505412" y="2797189.0852855137"/>
      <node id="n_302" x="691009.4517329219" y="2797194.399167307"/>
      <node id="n_303" x="691007.923076602" y="2797160.0314892973"/>
      <node id="n_304" x="691004.474070959" y="2797118.989031325"/>
      <node id="n_305" x="691001.0406982889" y="2797076.8388619768"/>
      <node id="n_306" x="690998.2228397256" y="2797062.3958293335"/>
      <node id="n_307" x="690997.2626653421" y="2797059.0584394997"/>
      <node id="n_308" x="691014.415878538" y="2797057.0851505836"/>
      <node id="n_309" x="691053.8365230066" y="2797047.6712932726"/>
      <node id="n_310" x="691087.214202268" y="2797038.1720483685"/>
      <node id="n_311" x="691119.5847619786" y="2797028.65863098"/>
      <node id="n_312" x="691144.8738073248" y="2797021.2609417858"/>
      <node id="n_313" x="691190.3377174482" y="2797011.93299491"/>
      <node id="n_314" x="691235.7232809501" y="2797008.1437795"/>
      <node id="n_315" x="691274.0115960293" y="2797007.5780190527"/>
      <node id="n_316" x="691327.376161749" y="2797009.441803297"/>
      <node id="n_317" x="691380.646552664" y="2797017.9521016846"/>
      <node id="n_318" x="691449.9374644272" y="2797033.337335479"/>
      <node id="n_319" x="691512.1466218357" y="2797050.8383986135"/>
      <node id="n_320" x="691545.1947972097" y="2797064.602339361"/>
      <node id="n_321" x="691565.1968258794" y="2797074.8574940884"/>
      <node id="n_322" x="691589.1017975698" y="2797094.031573295"/>
      <node id="n_323" x="691636.9744112707" y="2797127.9489998017"/>
      <node id="n_324" x="691685.8696772106" y="2797160.7731889463"/>
      <node id="n_325" x="691699.859926384" y="2797168.727354625"/>
      <node id="n_326" x="691714.9044974266" y="2797173.372677079"/>
      <node id="n_327" x="691732.9705513885" y="2797178.060912065"/>
      <node id="n_328" x="691754.0738136849" y="2797181.6843531043"/>
      <node id="n_329" x="691814.3777903595" y="2797191.4042451265"/>
      <node id="n_330" x="691852.5713236845" y="2797197.486470901"/>
      <node id="n_331" x="691894.7462639832" y="2797206.9492071755"/>
      <node id="n_332" x="691914.7793297068" y="2797214.9894723846"/>
      <node id="n_333" x="691936.7637245664" y="2797227.48927496"/>
      <node id="n_334" x="692003.629341524" y="2797271.6495526345"/>
      <node id="n_335" x="692095.4528256711" y="2797331.676408065"/>
      <node id="n_336" x="692106.4369772113" y="2797338.4803239997"/>
      <node id="n_337" x="692145.3692386071" y="2797363.4089917685"/>
      <node id="n_338" x="692248.2543675918" y="2797424.7023326815"/>
      <node id="n_339" x="692339.163315165" y="2797478.070322845"/>
      <node id="n_340" x="692395.0899436834" y="2797512.105422696"/>
      <node id="n_341" x="692398.0798050397" y="2797514.363915138"/>
      <node id="n_342" x="692500.9469348592" y="2797576.7670605984"/>
      <node id="n_343" x="692614.7968133534" y="2797645.9754188173"/>
      <node id="n_344" x="692646.7722170239" y="2797664.158754075"/>
      <node id="n_345" x="692684.7587092838" y="2797684.6438474264"/>
      <node id="n_346" x="692713.775786198" y="2797698.3533447124"/>
      <node id="n_347" x="692747.7968275644" y="2797714.3502381598"/>
      <node id="n_348" x="692801.8496299613" y="2797738.388891587"/>
      <node id="n_349" x="692895.0219108821" y="2797774.0660904413"/>
      <node id="n_350" x="693061.2702269291" y="2797841.8113098037"/>
      <node id="n_351" x="693130.3496044367" y="2797871.605998022"/>
      <node id="n_352" x="693156.3603786555" y="2797884.165560259"/>
      <node id="n_353" x="693176.3601014491" y="2797894.42326588"/>
      <node id="n_354" x="693195.3526786581" y="2797904.666592089"/>
      <node id="n_355" x="693225.2966803778" y="2797923.9302952434"/>
      <node id="n_356" x="693277.1433900327" y="2797961.2348505347"/>
      <node id="n_357" x="693300.1008137835" y="2797975.9669108684"/>
      <node id="n_358" x="693328.077882079" y="2797991.878845906"/>
      <node id="n_359" x="693358.0691071316" y="2798007.819690672"/>
      <node id="n_360" x="693400.129703356" y="2798025.0414510444"/>
      <node id="n_361" x="693486.2489368072" y="2798060.6219802815"/>
      <node id="n_362" x="693666.54296396" y="2798131.9003540454"/>
      <node id="n_363" x="693733.6373010953" y="2798159.4539676015"/>
      <node id="n_364" x="693778.6706179562" y="2798180.043514047"/>
      <node id="n_365" x="693815.6788315035" y="2798198.3020903696"/>
      <node id="n_366" x="693849.6656606041" y="2798216.5173904295"/>
      <node id="n_367" x="693893.6278968811" y="2798241.5237994823"/>
      <node id="n_368" x="693932.5863375375" y="2798264.2425646945"/>
      <node id="n_369" x="694034.4182596579" y="2798327.7515262454"/>
      <node id="n_370" x="694077.3727327868" y="2798352.74410627"/>
      <node id="n_371" x="694085.381654072" y="2798356.183130432"/>
      <node id="n_372" x="694179.4105061616" y="2798401.853759563"/>
      <node id="n_373" x="694302.4368387975" y="2798462.34594906"/>
      <node id="n_374" x="694348.4435673542" y="2798485.1674824003"/>
      <node id="n_375" x="694412.4658647843" y="2798516.00437697"/>
      <node id="n_376" x="694538.4954891255" y="2798577.650107427"/>
      <node id="n_377" x="694594.4923377418" y="2798606.1563449153"/>
      <node id="n_378" x="694652.4871265631" y="2798635.799609843"/>
      <node id="n_379" x="694708.4835196504" y="2798664.306353111"/>
      <node id="n_380" x="694806.4406962857" y="2798716.6861514533"/>
      <node id="n_381" x="694904.381154124" y="2798770.1744465176"/>
      <node id="n_382" x="694972.3331998542" y="2798807.7187521993"/>
      <node id="n_383" x="695016.307627858" y="2798831.6213575792"/>
      <node id="n_384" x="695081.2699437682" y="2798866.907130564"/>
      <node id="n_385" x="695195.1449008588" y="2798932.815689816"/>
      <node id="n_386" x="695267.0594727206" y="2798974.850795963"/>
      <node id="n_387" x="695407.9143235303" y="2799055.5552966455"/>
      <node id="n_388" x="695439.8829779418" y="2799073.7457319917"/>
      <node id="n_389" x="695538.7774553681" y="2799130.576776966"/>
      <node id="n_390" x="695553.7706398142" y="2799138.5498217046"/>
      <node id="n_391" x="695570.7457711783" y="2799148.767546762"/>
      <node id="n_392" x="695687.573001317" y="2799219.155325439"/>
      <node id="n_393" x="695801.4101288816" y="2799287.2848868147"/>
      <node id="n_394" x="695828.3747765057" y="2799303.1877798554"/>
      <node id="n_395" x="695876.3260706866" y="2799330.475077232"/>
      <node id="n_396" x="695926.2429696793" y="2799361.1150181624"/>
      <node id="n_397" x="695945.2155164133" y="2799372.470236183"/>
      <node id="n_398" x="695993.1502584029" y="2799400.8657211945"/>
      <node id="n_399" x="696023.103339085" y="2799419.028395094"/>
      <node id="n_400" x="696024.1103565772" y="2799419.0430245753"/>
      <node id="n_401" x="696031.0951057319" y="2799423.576389856"/>
      <node id="n_402" x="696037.0728334563" y="2799428.0951285115"/>
      <node id="n_403" x="696051.0423096523" y="2799437.1618777043"/>
      <node id="n_404" x="696072.9552142551" y="2799454.0998825985"/>
      <node id="n_405" x="696104.82550618" y="2799478.9384583225"/>
      <node id="n_406" x="696164.5699134095" y="2799526.3418180905"/>
      <node id="n_407" x="696196.4398711047" y="2799551.1806343375"/>
      <node id="n_408" x="696255.1927533326" y="2799597.4620574135"/>
      <node id="n_409" x="696293.9985925625" y="2799630.1578482264"/>
      <node id="n_410" x="696298.9691409228" y="2799634.662064978"/>
      <node id="n_411" x="696303.9235687823" y="2799640.274024409"/>
      <node id="n_412" x="696315.8464150407" y="2799651.5272543626"/>
      <node id="n_413" x="696333.6500478933" y="2799673.9458256164"/>
      <node id="n_414" x="696358.2930217405" y="2799710.867645746"/>
      <node id="n_415" x="696423.2710913877" y="2799813.747294831"/>
      <node id="n_416" x="696499.0667689946" y="2799934.512539746"/>
      <node id="n_417" x="696596.6592531258" y="2800079.9714890784"/>
      <node id="n_418" x="696658.725714325" y="2800175.0543243783"/>
      <node id="n_419" x="696661.6658562052" y="2800180.637080378"/>
      <node id="n_420" x="696669.5600580537" y="2800191.831957708"/>
      <node id="n_421" x="696708.966245378" y="2800252.237400973"/>
      <node id="n_422" x="696750.3859723134" y="2800312.672362811"/>
      <node id="n_423" x="696808.5193743496" y="2800401.0508380984"/>
      <node id="n_424" x="696828.2380352779" y="2800430.146048893"/>
      <node id="n_425" x="696852.9589914908" y="2800461.5302644568"/>
      <node id="n_426" x="696890.5436743167" y="2800508.614038791"/>
      <node id="n_427" x="696922.2158573994" y="2800546.7477688706"/>
      <node id="n_428" x="696952.9294524344" y="2800581.543648638"/>
      <node id="n_429" x="696979.6636924783" y="2800612.9575486984"/>
      <node id="n_430" x="696999.4787371393" y="2800635.406592788"/>
      <node id="n_431" x="697017.2960374707" y="2800656.718506411"/>
      <node id="n_432" x="697069.8377908461" y="2800713.993228878"/>